Version 4
SHEET 1 968 680
WIRE 400 -16 0 -16
WIRE 400 32 400 -16
WIRE 528 32 400 32
WIRE 736 32 608 32
WIRE 816 32 736 32
WIRE 864 32 816 32
WIRE 864 48 864 32
WIRE -480 64 -512 64
WIRE 64 64 -480 64
WIRE 400 64 400 32
WIRE 400 64 320 64
WIRE 736 64 736 32
WIRE -512 144 -512 64
WIRE 0 144 0 -16
WIRE 64 144 0 144
WIRE 736 144 736 128
WIRE 736 144 320 144
WIRE 864 144 864 128
WIRE 864 144 736 144
WIRE 736 176 736 144
WIRE 64 208 -336 208
WIRE 64 240 -272 240
WIRE 64 272 -208 272
WIRE 480 272 320 272
WIRE 544 272 480 272
WIRE 64 304 -160 304
WIRE 544 304 544 272
WIRE -512 320 -512 224
WIRE 64 336 -128 336
WIRE 448 336 320 336
WIRE 448 432 448 336
WIRE 544 432 544 384
WIRE 544 432 448 432
WIRE 544 464 544 432
FLAG 736 176 0
FLAG -512 320 0
FLAG 544 464 0
FLAG 816 32 Vout
FLAG -480 64 Vin
FLAG 480 272 Ic
FLAG -272 240 icg
FLAG -208 272 idg
FLAG -160 304 ipk
FLAG -128 336 iv
FLAG -336 208 Dc
DATAFLAG -208 240 ""
DATAFLAG -112 272 ""
DATAFLAG -112 304 ""
DATAFLAG -32 336 ""
DATAFLAG -208 208 ""
SYMBOL cap 720 64 R0
SYMATTR InstName C1
SYMATTR Value 1m
SYMBOL res 848 32 R0
SYMATTR InstName R1
SYMATTR Value 2
SYMBOL voltage -512 128 R0
WINDOW 123 0 0 Left 0
WINDOW 39 0 0 Left 0
WINDOW 3 -86 64 Left 2
SYMATTR Value 7
SYMATTR InstName V1
SYMBOL voltage 544 288 R0
WINDOW 123 0 0 Left 0
WINDOW 39 0 0 Left 0
SYMATTR InstName V2
SYMATTR Value PULSE(4.2 4.3 1m 10n 10n 10u)
SYMBOL CPM_Control_IRM 192 144 R0
SYMATTR InstName X2
SYMATTR SpiceLine Fsw=100k Lm=22u mcmp=171k
SYMATTR SpiceLine2 Dmin=10m Dmax=0.96
SYMBOL res 512 48 R270
WINDOW 0 32 56 VTop 2
WINDOW 3 0 56 VBottom 2
SYMATTR InstName R2
SYMATTR Value 10m
TEXT 56 512 Left 2 !.tran 0 1.09m 990u
TEXT -416 632 Left 2 ;TEST JIG IMPLEMENTS A PEAK-CURRENT MODE CONTROL MODEL AS A BUCK CONVERTER
