Version 4
SHEET 1 3128 680
WIRE 944 -512 832 -512
WIRE 1152 -512 1008 -512
WIRE 1152 -432 1152 -512
WIRE 1152 -256 1152 -352
WIRE 2144 -192 1936 -192
WIRE 2400 -192 2208 -192
WIRE 560 -96 400 -96
WIRE 784 -96 768 -96
WIRE 832 -96 832 -512
WIRE 832 -96 784 -96
WIRE 864 -96 832 -96
WIRE 992 -96 944 -96
WIRE 1168 -96 1056 -96
WIRE 1248 -96 1168 -96
WIRE 1296 -96 1248 -96
WIRE 1360 -96 1296 -96
WIRE 1440 -96 1360 -96
WIRE 1744 -96 1440 -96
WIRE 1744 -64 1744 -96
WIRE 1936 -64 1936 -192
WIRE 2016 -64 1936 -64
WIRE 2224 -64 2080 -64
WIRE 2400 -64 2400 -192
WIRE 2400 -64 2304 -64
WIRE 1296 -32 1296 -96
WIRE 1360 -32 1360 -96
WIRE 1168 -16 1168 -96
WIRE 1440 -16 1440 -96
WIRE 560 0 560 -96
WIRE 768 0 768 -96
WIRE 2112 48 2080 48
WIRE -480 64 -512 64
WIRE 64 64 -480 64
WIRE 400 64 400 -96
WIRE 400 64 320 64
WIRE 2080 112 2080 48
WIRE 1744 128 1744 16
WIRE 1936 128 1936 -64
WIRE 1936 128 1744 128
WIRE 2048 128 1936 128
WIRE -512 144 -512 64
WIRE -208 144 -336 144
WIRE -80 144 -128 144
WIRE 64 144 0 144
WIRE 560 144 560 80
WIRE 560 144 320 144
WIRE 768 144 768 80
WIRE 768 144 560 144
WIRE 1168 144 1168 48
WIRE 1168 144 768 144
WIRE 1296 144 1296 48
WIRE 1296 144 1168 144
WIRE 1360 144 1360 48
WIRE 1360 144 1296 144
WIRE 1440 144 1440 64
WIRE 1440 144 1360 144
WIRE 2240 144 2112 144
WIRE 2400 144 2400 -64
WIRE 2400 144 2320 144
WIRE 2688 144 2400 144
WIRE 2896 144 2768 144
WIRE 3088 144 2896 144
WIRE 2048 160 2000 160
WIRE -336 176 -336 144
WIRE 1168 176 1168 144
WIRE 2896 176 2896 144
WIRE 64 208 -336 208
WIRE 1744 208 1744 128
WIRE 2080 208 2080 176
WIRE 64 240 -272 240
WIRE 2000 240 2000 160
WIRE 64 272 -208 272
WIRE 480 272 320 272
WIRE 544 272 480 272
WIRE 64 304 -160 304
WIRE -512 320 -512 224
WIRE 64 336 -128 336
WIRE 448 336 320 336
WIRE 2896 336 2896 256
WIRE 1744 352 1744 288
WIRE 2000 352 2000 320
WIRE 2368 448 2336 448
WIRE 448 496 448 336
WIRE 2336 496 2336 448
WIRE 2336 608 2336 576
FLAG 1168 176 0
FLAG -512 320 0
FLAG 448 496 0
FLAG 1248 -96 Vout
FLAG -480 64 Vin
FLAG 480 272 Ic
FLAG -272 240 icg
FLAG -208 272 idg
FLAG -160 304 ipk
FLAG -128 336 iv
FLAG -336 208 Dc
FLAG -336 176 0
FLAG 784 -96 Vsec
FLAG 1744 352 0
FLAG 2112 48 Vbias
FLAG 2080 208 0
FLAG 2000 352 0
FLAG 3088 144 Ic
FLAG 2336 608 0
FLAG 2368 448 Vbias
FLAG 2896 336 0
FLAG 1152 -256 0
DATAFLAG -208 240 ""
DATAFLAG -112 272 ""
DATAFLAG -112 304 ""
DATAFLAG -32 336 ""
DATAFLAG -208 208 ""
SYMBOL cap 1152 -16 R0
SYMATTR InstName C1
SYMATTR Value 1m
SYMBOL res 1280 -48 R0
SYMATTR InstName R1
SYMATTR Value 18
SYMBOL voltage -512 128 R0
WINDOW 123 0 0 Left 0
WINDOW 39 0 0 Left 0
WINDOW 3 -86 64 Left 2
SYMATTR Value 170
SYMATTR InstName V1
SYMBOL CPM_Control_IRM 192 144 R0
SYMATTR InstName X2
SYMATTR SpiceLine Fsw=225k Lm=480u mcmp=450k
SYMATTR SpiceLine2 Dmin=0m Dmax=0.96
SYMBOL res 848 -80 R270
WINDOW 0 32 56 VTop 2
WINDOW 3 0 56 VBottom 2
SYMATTR InstName R2
SYMATTR Value 50m
SYMBOL res 16 128 R90
WINDOW 0 0 56 VBottom 2
WINDOW 3 32 56 VTop 2
SYMATTR InstName RFET
SYMATTR Value 200m
SYMBOL res -112 128 R90
WINDOW 0 0 56 VBottom 2
WINDOW 3 32 56 VTop 2
SYMATTR InstName Rcs
SYMATTR Value 100m
SYMBOL bv 560 -16 R0
SYMATTR InstName B1
SYMATTR Value V=V(Vsec)*Nps
SYMBOL bi 768 80 M180
WINDOW 0 24 80 Left 2
WINDOW 3 24 0 Left 2
SYMATTR InstName B2
SYMATTR Value I=I(B1)*Nps
SYMBOL diode 992 -80 R270
WINDOW 0 32 32 VTop 2
WINDOW 3 0 32 VBottom 2
SYMATTR InstName D1
SYMATTR Value MURS320
SYMBOL res 1728 -80 R0
SYMATTR InstName R3
SYMATTR Value 22.8k
SYMBOL res 1728 192 R0
SYMATTR InstName R4
SYMATTR Value 1.65k
SYMBOL Opamps\\UniversalOpamp2 2080 144 R0
SYMATTR InstName U1
SYMATTR Value2 Avol=1Meg GBW=1Meg Slew=1Meg
SYMATTR SpiceLine ilimit=25m rail=0 Vos=0 phimargin=68
SYMBOL voltage 2000 224 M0
WINDOW 123 0 0 Left 0
WINDOW 39 0 0 Left 0
WINDOW 3 -86 64 Left 2
SYMATTR Value 1.24
SYMATTR InstName V2
SYMBOL res 2320 -80 R90
WINDOW 0 0 56 VBottom 2
WINDOW 3 32 56 VTop 2
SYMATTR InstName R5
SYMATTR Value 220k
SYMBOL cap 2080 -80 R90
WINDOW 0 0 32 VBottom 2
WINDOW 3 32 32 VTop 2
SYMATTR InstName C2
SYMATTR Value 4.7n
SYMBOL cap 2208 -208 R90
WINDOW 0 0 32 VBottom 2
WINDOW 3 32 32 VTop 2
SYMATTR InstName C3
SYMATTR Value 30p
SYMBOL res 2336 128 R90
WINDOW 0 0 56 VBottom 2
WINDOW 3 32 56 VTop 2
SYMATTR InstName R6
SYMATTR Value 5k
SYMBOL voltage 2336 480 M0
WINDOW 123 0 0 Left 0
WINDOW 39 0 0 Left 0
WINDOW 3 -86 64 Left 2
SYMATTR Value 18
SYMATTR InstName V3
SYMBOL current 1440 -16 R0
WINDOW 123 0 0 Left 0
WINDOW 39 0 0 Left 0
SYMATTR InstName I1
SYMATTR Value PULSE(0 -1 1m 10u 10u 5m)
SYMBOL res 2784 128 R90
WINDOW 0 0 56 VBottom 2
WINDOW 3 32 56 VTop 2
SYMATTR InstName R8
SYMATTR Value 300k
SYMBOL res 2912 272 R180
WINDOW 0 36 76 Left 2
WINDOW 3 36 40 Left 2
SYMATTR InstName R9
SYMATTR Value 100k
SYMBOL voltage 1152 -448 R0
WINDOW 123 0 0 Left 0
WINDOW 39 0 0 Left 0
WINDOW 3 -86 64 Left 2
SYMATTR Value 16
SYMATTR InstName V4
SYMBOL diode 1008 -528 R90
WINDOW 0 0 32 VBottom 2
WINDOW 3 32 32 VTop 2
SYMATTR InstName D2
SYMATTR Value MURS320
SYMBOL res 1344 -48 R0
SYMATTR InstName R7
SYMATTR Value 1.2k
TEXT 56 512 Left 2 !.tran 10m
TEXT -416 632 Left 2 ;TEST JIG IMPLEMENTS A PEAK-CURRENT MODE CONTROL MODEL AS A FLYBACK CONVERTER
TEXT 128 -312 Left 2 !.param Nps 12
